REMARK  Name = 
REMARK  2 active torsions:
REMARK  status: ('A' for Active; 'I' for Inactive)
REMARK    1  A    between atoms: C_2  and  C_3
REMARK    2  A    between atoms: C_3  and  C_4
REMARK                            x       y       z     vdW  Elec       q    Type
REMARK                         _______ _______ _______ _____ _____    ______ ____
ROOT
ATOM      1  C   UNL     1       4.569  -1.088   0.084  0.00  0.00    +0.000 C 
ATOM      2  C   UNL     1       5.414  -1.980   1.031  0.00  0.00    +0.000 C 
ATOM      3  C   UNL     1       6.316  -0.753   1.269  0.00  0.00    +0.000 C 
ATOM      4  C   UNL     1       5.105   0.124   0.893  0.00  0.00    +0.000 C 
ENDROOT
BRANCH   1   5
ATOM      5  C   UNL     1       3.069  -1.337   0.113  0.00  0.00    +0.000 C 
BRANCH   5   7
ATOM      6  O   UNL     1       2.746   0.491  -1.444  0.00  0.00    +0.000 OA
ATOM      7  C   UNL     1       2.266  -0.411  -0.763  0.00  0.00    +0.000 C 
ENDBRANCH   5   7
ENDBRANCH   1   5
TORSDOF 2
